# PowerRouting for OMNeT++ - common settings
# Marcel Ebbrecht, marcel.ebbrecht@googlemail.com
# free software, see LICENSE.md for details

[General]
description = general settings for all scenarios, not runnable
network = AODV1S1R

# misc settings
record-eventlog = true
num-rngs = 3
sim-time-limit = 900s
**.mobility.rng-0 = 1
**.wlan[*].mac.rng-0 = 2

# channel physical parameters
**.wlan[*].typename = "IdealWirelessNic"
**.wlan[*].bitrate = 1Mbps
**.wlan[*].mac.address = "auto"
**.wlan[*].mac.headerLength = 20B
**.wlan[*].radioType = "IdealRadio"
**.wlan[*].radio.transmitter.headerBitLength = 0b
**.wlan[*].radio.transmitter.communicationRange = 250m
**.wlan[*].radio.transmitter.interferenceRange = 0m
**.wlan[*].radio.transmitter.detectionRange = 0m
**.wlan[*].radio.receiver.ignoreInterference = true

# lifecycle
**.hasStatus = true

# energy storage
**.router*.energyStorageType = "SimpleEpEnergyStorage"
**.router*.energyStorage*.nominalCapacity = 2.0J
**.router*.energyManagementType = "SimpleEpEnergyManagement"
**.router*.energyManagement*.nodeShutdownCapacity= 0.05J
**.sender*.energyStorageType = "IdealEpEnergyStorage"
**.receiver*.energyStorageType = "IdealEpEnergyStorage"

# power settings experiment
**.wlan[*].radio.energyConsumerType = "StateBasedEpEnergyConsumer"
**.wlan[*].radio.energyConsumer.offPowerConsumption = 0mW
**.wlan[*].radio.energyConsumer.receiverBusyPowerConsumption = 0mW
**.wlan[*].radio.energyConsumer.receiverIdlePowerConsumption = 0mW
**.wlan[*].radio.energyConsumer.receiverReceivingDataPowerConsumption = 0mW
**.wlan[*].radio.energyConsumer.receiverReceivingHeaderPowerConsumption = 0mW
**.wlan[*].radio.energyConsumer.receiverReceivingPowerConsumption = 0mW
**.wlan[*].radio.energyConsumer.receiverReceivingPreamblePowerConsumption = 0mW
**.wlan[*].radio.energyConsumer.sleepPowerConsumption = 0mW
**.wlan[*].radio.energyConsumer.switchingPowerConsumption = 0mW
**.wlan[*].radio.energyConsumer.transmitterIdlePowerConsumption = 0mW
**.wlan[*].radio.energyConsumer.transmitterTransmittingDataPowerConsumption = 0mW
**.wlan[*].radio.energyConsumer.transmitterTransmittingHeaderPowerConsumption = 0mW
**.wlan[*].radio.energyConsumer.transmitterTransmittingPowerConsumption = 1000mW
**.wlan[*].radio.energyConsumer.transmitterTransmittingPreamblePowerConsumption = 0mW

# display
**.**.displayCommunicationRange = false

# visualizer
#*.visualizer.physicalLinkVisualizer.packetFilter = "*ping*"
#*.visualizer.physicalLinkVisualizer.displayLinks = true
#*.visualizer.dataLinkVisualizer.displayLinks = true
#*.visualizer.dataLinkVisualizer.packetFilter = "*ping*"
*.visualizer.networkRouteVisualizer.displayRoutes = true
*.visualizer.networkRouteVisualizer.packetFilter = "*ping*"